C7H16
APtclcactv04242413203D 0   0.00000     0.00000
 
 23 22  0  0  0  0  0  0  0  0999 V2000
   -1.2492   -0.3710    0.0000 C   0  0  0  0  0  0  0  0  0  0  0  0
   -2.4985    0.5124   -0.0000 C   0  0  0  0  0  0  0  0  0  0  0  0
   -3.7477   -0.3710    0.0000 C   0  0  0  0  0  0  0  0  0  0  0  0
   -3.7477   -1.0003   -0.8900 H   0  0  0  0  0  0  0  0  0  0  0  0
   -3.7477   -1.0003    0.8900 H   0  0  0  0  0  0  0  0  0  0  0  0
   -4.6377    0.2584   -0.0000 H   0  0  0  0  0  0  0  0  0  0  0  0
   -2.4985    1.1417    0.8900 H   0  0  0  0  0  0  0  0  0  0  0  0
   -2.4985    1.1417   -0.8900 H   0  0  0  0  0  0  0  0  0  0  0  0
   -0.0000    0.5124    0.0000 C   0  0  0  0  0  0  0  0  0  0  0  0
    1.2492   -0.3710   -0.0000 C   0  0  0  0  0  0  0  0  0  0  0  0
    2.4985    0.5124    0.0000 C   0  0  0  0  0  0  0  0  0  0  0  0
    3.7477   -0.3710   -0.0000 C   0  0  0  0  0  0  0  0  0  0  0  0
    4.6377    0.2584    0.0000 H   0  0  0  0  0  0  0  0  0  0  0  0
    3.7477   -1.0003    0.8900 H   0  0  0  0  0  0  0  0  0  0  0  0
    3.7477   -1.0003   -0.8900 H   0  0  0  0  0  0  0  0  0  0  0  0
    2.4985    1.1417   -0.8900 H   0  0  0  0  0  0  0  0  0  0  0  0
    2.4985    1.1417    0.8900 H   0  0  0  0  0  0  0  0  0  0  0  0
   -1.2492   -1.0003    0.8900 H   0  0  0  0  0  0  0  0  0  0  0  0
   -1.2492   -1.0003   -0.8900 H   0  0  0  0  0  0  0  0  0  0  0  0
   -0.0000    1.1417   -0.8900 H   0  0  0  0  0  0  0  0  0  0  0  0
    0.0000    1.1417    0.8900 H   0  0  0  0  0  0  0  0  0  0  0  0
    1.2492   -1.0003    0.8900 H   0  0  0  0  0  0  0  0  0  0  0  0
    1.2492   -1.0003   -0.8900 H   0  0  0  0  0  0  0  0  0  0  0  0
  1  2  1  0  0  0  0
  2  3  1  0  0  0  0
  3  4  1  0  0  0  0
  3  5  1  0  0  0  0
  3  6  1  0  0  0  0
  2  7  1  0  0  0  0
  2  8  1  0  0  0  0
  1  9  1  0  0  0  0
  9 10  1  0  0  0  0
 10 11  1  0  0  0  0
 11 12  1  0  0  0  0
 12 13  1  0  0  0  0
 12 14  1  0  0  0  0
 12 15  1  0  0  0  0
 11 16  1  0  0  0  0
 11 17  1  0  0  0  0
  1 18  1  0  0  0  0
  1 19  1  0  0  0  0
  9 20  1  0  0  0  0
  9 21  1  0  0  0  0
 10 22  1  0  0  0  0
 10 23  1  0  0  0  0
M  END
$$$$

