21
C7H16
 C   -1.249200   -0.371000    0.000000
 C   -2.498500    0.512400    0.000000
 C   -3.747700   -0.371000    0.000000
 H   -4.637700    0.258400    0.000000
 H   -3.747700   -1.000300   -0.890000
 H   -3.747700   -1.000300    0.890000
 H   -2.498500    1.141700    0.890000
 H   -2.498500    1.141700   -0.890000
 H   -1.249200   -1.000300    0.890000
 H   -1.249200   -1.000300   -0.890000
 C    0.000000    0.512400    0.000000
 C    1.249200   -0.371000    0.000000
 C    2.498500    0.512400    0.000000
 C    3.747700   -0.371000    0.000000
 H    3.747700   -1.000300    0.890000
 H    3.747700   -1.000300   -0.890000
 H    4.637700    0.258400    0.000000
 H    2.498500    1.141700   -0.890000
 H    2.498500    1.141700    0.890000
 H    1.249200   -1.000300    0.890000
 H    1.249200   -1.000300   -0.890000
